ARB_GBA01F3_2019/PVSystems_0.7.dss
New PVSystem.PV0 phases=3 Bus1=94057bf42115.1.2.3.0 kV=0.22 kVA=10.55 Pmpp=10.55 conn=wye PF = 1 %cutin = 0.00005 %cutout = 0.00005 effcurve = Myeff P-TCurve = MyPvsT Daily = MyIrrad TDaily = Mytemp 
New PVSystem.PV1 phases=2 Bus1=94057bf42115.3.1.0 kV=0.22 kVA=8.43 Pmpp=8.43 conn=wye PF = 1 %cutin = 0.00005 %cutout = 0.00005 effcurve = Myeff P-TCurve = MyPvsT Daily = MyIrrad TDaily = Mytemp 
New PVSystem.PV2 phases=3 Bus1=12931736m784.1.2.3 kV=13.8 kVA=639.12 Pmpp=639.12 conn=wye PF = 1 %cutin = 0.00005 %cutout = 0.00005 effcurve = Myeff P-TCurve = MyPvsT Daily = MyIrrad TDaily = Mytemp 
New PVSystem.PV3 phases=3 Bus1=94165bf42158.1.2.3.0 kV=0.22 kVA=2.78 Pmpp=2.78 conn=wye PF = 1 %cutin = 0.00005 %cutout = 0.00005 effcurve = Myeff P-TCurve = MyPvsT Daily = MyIrrad TDaily = Mytemp 
New PVSystem.PV4 phases=3 Bus1=9685689bf46266.1.2.3.0 kV=0.22 kVA=38.89 Pmpp=38.89 conn=wye PF = 1 %cutin = 0.00005 %cutout = 0.00005 effcurve = Myeff P-TCurve = MyPvsT Daily = MyIrrad TDaily = Mytemp 
New PVSystem.PV5 phases=1 Bus1=104132278m784.1.0 kV=13.8 kVA=1930.42 Pmpp=1930.42 conn=wye PF = 1 %cutin = 0.00005 %cutout = 0.00005 effcurve = Myeff P-TCurve = MyPvsT Daily = MyIrrad TDaily = Mytemp 
New PVSystem.PV6 phases=2 Bus1=94144bf42161.1.2.0 kV=0.22 kVA=6.51 Pmpp=6.51 conn=wye PF = 1 %cutin = 0.00005 %cutout = 0.00005 effcurve = Myeff P-TCurve = MyPvsT Daily = MyIrrad TDaily = Mytemp 
New PVSystem.PV7 phases=3 Bus1=94133bf42166.1.2.3.0 kV=0.22 kVA=11.46 Pmpp=11.46 conn=wye PF = 1 %cutin = 0.00005 %cutout = 0.00005 effcurve = Myeff P-TCurve = MyPvsT Daily = MyIrrad TDaily = Mytemp 
New PVSystem.PV8 phases=3 Bus1=94048bf42116.1.2.3.0 kV=0.22 kVA=4.53 Pmpp=4.53 conn=wye PF = 1 %cutin = 0.00005 %cutout = 0.00005 effcurve = Myeff P-TCurve = MyPvsT Daily = MyIrrad TDaily = Mytemp 
New PVSystem.PV9 phases=3 Bus1=91087bf46262.1.2.3.0 kV=0.22 kVA=4.59 Pmpp=4.59 conn=wye PF = 1 %cutin = 0.00005 %cutout = 0.00005 effcurve = Myeff P-TCurve = MyPvsT Daily = MyIrrad TDaily = Mytemp 
New PVSystem.PV10 phases=2 Bus1=94042bf42111.1.2.0 kV=0.22 kVA=5.73 Pmpp=5.73 conn=wye PF = 1 %cutin = 0.00005 %cutout = 0.00005 effcurve = Myeff P-TCurve = MyPvsT Daily = MyIrrad TDaily = Mytemp 
New PVSystem.PV11 phases=3 Bus1=13438251bf60891.1.2.3.0 kV=0.22 kVA=9.69 Pmpp=9.69 conn=wye PF = 1 %cutin = 0.00005 %cutout = 0.00005 effcurve = Myeff P-TCurve = MyPvsT Daily = MyIrrad TDaily = Mytemp 
New PVSystem.PV12 phases=3 Bus1=12820193bf42135.1.2.3.0 kV=0.22 kVA=25.92 Pmpp=25.92 conn=wye PF = 1 %cutin = 0.00005 %cutout = 0.00005 effcurve = Myeff P-TCurve = MyPvsT Daily = MyIrrad TDaily = Mytemp 
New PVSystem.PV13 phases=2 Bus1=94072bf42121.3.1.0 kV=0.22 kVA=35.3 Pmpp=35.3 conn=wye PF = 1 %cutin = 0.00005 %cutout = 0.00005 effcurve = Myeff P-TCurve = MyPvsT Daily = MyIrrad TDaily = Mytemp 
New PVSystem.PV14 phases=2 Bus1=91417bf42149.1.2.0 kV=0.22 kVA=12.33 Pmpp=12.33 conn=wye PF = 1 %cutin = 0.00005 %cutout = 0.00005 effcurve = Myeff P-TCurve = MyPvsT Daily = MyIrrad TDaily = Mytemp 
New PVSystem.PV15 phases=3 Bus1=94081bf42122.1.2.3.0 kV=0.22 kVA=17.69 Pmpp=17.69 conn=wye PF = 1 %cutin = 0.00005 %cutout = 0.00005 effcurve = Myeff P-TCurve = MyPvsT Daily = MyIrrad TDaily = Mytemp 
New PVSystem.PV16 phases=3 Bus1=94059m784.1.2.3 kV=13.8 kVA=183.54 Pmpp=183.54 conn=wye PF = 1 %cutin = 0.00005 %cutout = 0.00005 effcurve = Myeff P-TCurve = MyPvsT Daily = MyIrrad TDaily = Mytemp 
New PVSystem.PV17 phases=2 Bus1=94160bf42157.1.2.0 kV=0.22 kVA=5.45 Pmpp=5.45 conn=wye PF = 1 %cutin = 0.00005 %cutout = 0.00005 effcurve = Myeff P-TCurve = MyPvsT Daily = MyIrrad TDaily = Mytemp 
New PVSystem.PV18 phases=3 Bus1=12820193bf42135.1.2.3.0 kV=0.22 kVA=6.99 Pmpp=6.99 conn=wye PF = 1 %cutin = 0.00005 %cutout = 0.00005 effcurve = Myeff P-TCurve = MyPvsT Daily = MyIrrad TDaily = Mytemp 
New PVSystem.PV19 phases=1 Bus1=94036bf42153.1.0 kV=0.22 kVA=4.74 Pmpp=4.74 conn=wye PF = 1 %cutin = 0.00005 %cutout = 0.00005 effcurve = Myeff P-TCurve = MyPvsT Daily = MyIrrad TDaily = Mytemp 
New PVSystem.PV20 phases=3 Bus1=91417bf42149.1.2.3.0 kV=0.22 kVA=7.84 Pmpp=7.84 conn=wye PF = 1 %cutin = 0.00005 %cutout = 0.00005 effcurve = Myeff P-TCurve = MyPvsT Daily = MyIrrad TDaily = Mytemp 
New PVSystem.PV21 phases=1 Bus1=983358bf46481.1.0 kV=0.22 kVA=25.82 Pmpp=25.82 conn=wye PF = 1 %cutin = 0.00005 %cutout = 0.00005 effcurve = Myeff P-TCurve = MyPvsT Daily = MyIrrad TDaily = Mytemp 
New PVSystem.PV22 phases=2 Bus1=427842bf46058.1.2.0 kV=0.22 kVA=1.11 Pmpp=1.11 conn=wye PF = 1 %cutin = 0.00005 %cutout = 0.00005 effcurve = Myeff P-TCurve = MyPvsT Daily = MyIrrad TDaily = Mytemp 
New PVSystem.PV23 phases=2 Bus1=94096bf42133.3.1.0 kV=0.22 kVA=3.09 Pmpp=3.09 conn=wye PF = 1 %cutin = 0.00005 %cutout = 0.00005 effcurve = Myeff P-TCurve = MyPvsT Daily = MyIrrad TDaily = Mytemp 
New PVSystem.PV24 phases=3 Bus1=420124bf46355.1.2.3.0 kV=0.22 kVA=57.26 Pmpp=57.26 conn=wye PF = 1 %cutin = 0.00005 %cutout = 0.00005 effcurve = Myeff P-TCurve = MyPvsT Daily = MyIrrad TDaily = Mytemp 
New PVSystem.PV25 phases=2 Bus1=983393bf46484.1.2.0 kV=0.22 kVA=5.46 Pmpp=5.46 conn=wye PF = 1 %cutin = 0.00005 %cutout = 0.00005 effcurve = Myeff P-TCurve = MyPvsT Daily = MyIrrad TDaily = Mytemp 
New PVSystem.PV26 phases=2 Bus1=94067bf42119.2.3.0 kV=0.22 kVA=7.76 Pmpp=7.76 conn=wye PF = 1 %cutin = 0.00005 %cutout = 0.00005 effcurve = Myeff P-TCurve = MyPvsT Daily = MyIrrad TDaily = Mytemp 
New PVSystem.PV27 phases=3 Bus1=13384834bf42159.1.2.3.0 kV=0.22 kVA=7.08 Pmpp=7.08 conn=wye PF = 1 %cutin = 0.00005 %cutout = 0.00005 effcurve = Myeff P-TCurve = MyPvsT Daily = MyIrrad TDaily = Mytemp 
New PVSystem.PV28 phases=2 Bus1=91011bf42130.1.2.0 kV=0.22 kVA=4.44 Pmpp=4.44 conn=wye PF = 1 %cutin = 0.00005 %cutout = 0.00005 effcurve = Myeff P-TCurve = MyPvsT Daily = MyIrrad TDaily = Mytemp 
New PVSystem.PV29 phases=2 Bus1=13384834bf42159.1.2.0 kV=0.22 kVA=3.71 Pmpp=3.71 conn=wye PF = 1 %cutin = 0.00005 %cutout = 0.00005 effcurve = Myeff P-TCurve = MyPvsT Daily = MyIrrad TDaily = Mytemp 
New PVSystem.PV30 phases=3 Bus1=94057bf42115.1.2.3.0 kV=0.22 kVA=10.25 Pmpp=10.25 conn=wye PF = 1 %cutin = 0.00005 %cutout = 0.00005 effcurve = Myeff P-TCurve = MyPvsT Daily = MyIrrad TDaily = Mytemp 
New PVSystem.PV31 phases=3 Bus1=94073bf42142.1.2.3.0 kV=0.22 kVA=12.46 Pmpp=12.46 conn=wye PF = 1 %cutin = 0.00005 %cutout = 0.00005 effcurve = Myeff P-TCurve = MyPvsT Daily = MyIrrad TDaily = Mytemp 
New PVSystem.PV32 phases=3 Bus1=420218bf46261.1.2.3.0 kV=0.22 kVA=7.78 Pmpp=7.78 conn=wye PF = 1 %cutin = 0.00005 %cutout = 0.00005 effcurve = Myeff P-TCurve = MyPvsT Daily = MyIrrad TDaily = Mytemp 
New PVSystem.PV33 phases=2 Bus1=94096bf42133.2.3.0 kV=0.22 kVA=3.09 Pmpp=3.09 conn=wye PF = 1 %cutin = 0.00005 %cutout = 0.00005 effcurve = Myeff P-TCurve = MyPvsT Daily = MyIrrad TDaily = Mytemp 
New PVSystem.PV34 phases=1 Bus1=94171bf42156.3.0 kV=0.127 kVA=1.42 Pmpp=1.42 conn=wye PF = 1 %cutin = 0.00005 %cutout = 0.00005 effcurve = Myeff P-TCurve = MyPvsT Daily = MyIrrad TDaily = Mytemp 
New PVSystem.PV35 phases=2 Bus1=94060bf42117.3.1.0 kV=0.22 kVA=15.82 Pmpp=15.82 conn=wye PF = 1 %cutin = 0.00005 %cutout = 0.00005 effcurve = Myeff P-TCurve = MyPvsT Daily = MyIrrad TDaily = Mytemp 
New PVSystem.PV36 phases=3 Bus1=94156bf42160.1.2.3.0 kV=0.22 kVA=1.53 Pmpp=1.53 conn=wye PF = 1 %cutin = 0.00005 %cutout = 0.00005 effcurve = Myeff P-TCurve = MyPvsT Daily = MyIrrad TDaily = Mytemp 
New PVSystem.PV37 phases=3 Bus1=90904bf54869.1.2.3.0 kV=0.22 kVA=17.77 Pmpp=17.77 conn=wye PF = 1 %cutin = 0.00005 %cutout = 0.00005 effcurve = Myeff P-TCurve = MyPvsT Daily = MyIrrad TDaily = Mytemp 
New PVSystem.PV38 phases=3 Bus1=94070bf42141.1.2.3.0 kV=0.22 kVA=19.91 Pmpp=19.91 conn=wye PF = 1 %cutin = 0.00005 %cutout = 0.00005 effcurve = Myeff P-TCurve = MyPvsT Daily = MyIrrad TDaily = Mytemp 
New PVSystem.PV39 phases=3 Bus1=13384834bf42159.1.2.3.0 kV=0.22 kVA=7.96 Pmpp=7.96 conn=wye PF = 1 %cutin = 0.00005 %cutout = 0.00005 effcurve = Myeff P-TCurve = MyPvsT Daily = MyIrrad TDaily = Mytemp 
New PVSystem.PV40 phases=2 Bus1=94073bf42142.1.2.0 kV=0.22 kVA=18.27 Pmpp=18.27 conn=wye PF = 1 %cutin = 0.00005 %cutout = 0.00005 effcurve = Myeff P-TCurve = MyPvsT Daily = MyIrrad TDaily = Mytemp 
New PVSystem.PV41 phases=3 Bus1=94144bf42161.1.2.3.0 kV=0.22 kVA=12.03 Pmpp=12.03 conn=wye PF = 1 %cutin = 0.00005 %cutout = 0.00005 effcurve = Myeff P-TCurve = MyPvsT Daily = MyIrrad TDaily = Mytemp 
New PVSystem.PV42 phases=3 Bus1=94067bf42119.1.2.3.0 kV=0.22 kVA=15.81 Pmpp=15.81 conn=wye PF = 1 %cutin = 0.00005 %cutout = 0.00005 effcurve = Myeff P-TCurve = MyPvsT Daily = MyIrrad TDaily = Mytemp 
New PVSystem.PV43 phases=2 Bus1=430906bf60970.1.2.0 kV=0.22 kVA=7.54 Pmpp=7.54 conn=wye PF = 1 %cutin = 0.00005 %cutout = 0.00005 effcurve = Myeff P-TCurve = MyPvsT Daily = MyIrrad TDaily = Mytemp 
New PVSystem.PV44 phases=3 Bus1=420144bf54355.1.2.3.0 kV=0.22 kVA=7.07 Pmpp=7.07 conn=wye PF = 1 %cutin = 0.00005 %cutout = 0.00005 effcurve = Myeff P-TCurve = MyPvsT Daily = MyIrrad TDaily = Mytemp 
New PVSystem.PV45 phases=3 Bus1=420218bf46261.1.2.3.0 kV=0.22 kVA=10.13 Pmpp=10.13 conn=wye PF = 1 %cutin = 0.00005 %cutout = 0.00005 effcurve = Myeff P-TCurve = MyPvsT Daily = MyIrrad TDaily = Mytemp 
New PVSystem.PV46 phases=3 Bus1=94046bf42150.1.2.3.0 kV=0.22 kVA=6.72 Pmpp=6.72 conn=wye PF = 1 %cutin = 0.00005 %cutout = 0.00005 effcurve = Myeff P-TCurve = MyPvsT Daily = MyIrrad TDaily = Mytemp 
New PVSystem.PV47 phases=3 Bus1=430906bf60970.1.2.3.0 kV=0.22 kVA=43.67 Pmpp=43.67 conn=wye PF = 1 %cutin = 0.00005 %cutout = 0.00005 effcurve = Myeff P-TCurve = MyPvsT Daily = MyIrrad TDaily = Mytemp 
New PVSystem.PV48 phases=3 Bus1=91080bf42136.1.2.3.0 kV=0.22 kVA=10.37 Pmpp=10.37 conn=wye PF = 1 %cutin = 0.00005 %cutout = 0.00005 effcurve = Myeff P-TCurve = MyPvsT Daily = MyIrrad TDaily = Mytemp 
New PVSystem.PV49 phases=2 Bus1=94105bf42128.2.3.0 kV=0.22 kVA=5.05 Pmpp=5.05 conn=wye PF = 1 %cutin = 0.00005 %cutout = 0.00005 effcurve = Myeff P-TCurve = MyPvsT Daily = MyIrrad TDaily = Mytemp 
New PVSystem.PV50 phases=3 Bus1=94037m784.1.2.3 kV=13.8 kVA=114.71 Pmpp=114.71 conn=wye PF = 1 %cutin = 0.00005 %cutout = 0.00005 effcurve = Myeff P-TCurve = MyPvsT Daily = MyIrrad TDaily = Mytemp 
New PVSystem.PV51 phases=2 Bus1=91181bf42124.1.2.0 kV=0.22 kVA=1.25 Pmpp=1.25 conn=wye PF = 1 %cutin = 0.00005 %cutout = 0.00005 effcurve = Myeff P-TCurve = MyPvsT Daily = MyIrrad TDaily = Mytemp 
New PVSystem.PV52 phases=2 Bus1=94067bf42119.3.1.0 kV=0.22 kVA=12.85 Pmpp=12.85 conn=wye PF = 1 %cutin = 0.00005 %cutout = 0.00005 effcurve = Myeff P-TCurve = MyPvsT Daily = MyIrrad TDaily = Mytemp 
New PVSystem.PV53 phases=2 Bus1=94101bf42127.1.2.0 kV=0.22 kVA=2.3 Pmpp=2.3 conn=wye PF = 1 %cutin = 0.00005 %cutout = 0.00005 effcurve = Myeff P-TCurve = MyPvsT Daily = MyIrrad TDaily = Mytemp 
New PVSystem.PV54 phases=3 Bus1=94103bf42129.1.2.3.0 kV=0.22 kVA=54.57 Pmpp=54.57 conn=wye PF = 1 %cutin = 0.00005 %cutout = 0.00005 effcurve = Myeff P-TCurve = MyPvsT Daily = MyIrrad TDaily = Mytemp 
New PVSystem.PV55 phases=3 Bus1=91011bf42130.1.2.3.0 kV=0.22 kVA=9.13 Pmpp=9.13 conn=wye PF = 1 %cutin = 0.00005 %cutout = 0.00005 effcurve = Myeff P-TCurve = MyPvsT Daily = MyIrrad TDaily = Mytemp 
New PVSystem.PV56 phases=3 Bus1=428555bf49151.1.2.3.0 kV=0.22 kVA=15.3 Pmpp=15.3 conn=wye PF = 1 %cutin = 0.00005 %cutout = 0.00005 effcurve = Myeff P-TCurve = MyPvsT Daily = MyIrrad TDaily = Mytemp 
New PVSystem.PV57 phases=3 Bus1=91181bf42124.1.2.3.0 kV=0.22 kVA=6.61 Pmpp=6.61 conn=wye PF = 1 %cutin = 0.00005 %cutout = 0.00005 effcurve = Myeff P-TCurve = MyPvsT Daily = MyIrrad TDaily = Mytemp 
New PVSystem.PV58 phases=3 Bus1=94133bf42166.1.2.3.0 kV=0.22 kVA=8.99 Pmpp=8.99 conn=wye PF = 1 %cutin = 0.00005 %cutout = 0.00005 effcurve = Myeff P-TCurve = MyPvsT Daily = MyIrrad TDaily = Mytemp 
New PVSystem.PV59 phases=2 Bus1=512419bf45838.3.1.0 kV=0.22 kVA=6.29 Pmpp=6.29 conn=wye PF = 1 %cutin = 0.00005 %cutout = 0.00005 effcurve = Myeff P-TCurve = MyPvsT Daily = MyIrrad TDaily = Mytemp 
New PVSystem.PV60 phases=2 Bus1=94057bf42115.3.1.0 kV=0.22 kVA=5.54 Pmpp=5.54 conn=wye PF = 1 %cutin = 0.00005 %cutout = 0.00005 effcurve = Myeff P-TCurve = MyPvsT Daily = MyIrrad TDaily = Mytemp 
New PVSystem.PV61 phases=3 Bus1=983393bf46484.1.2.3.0 kV=0.22 kVA=9.28 Pmpp=9.28 conn=wye PF = 1 %cutin = 0.00005 %cutout = 0.00005 effcurve = Myeff P-TCurve = MyPvsT Daily = MyIrrad TDaily = Mytemp 
New PVSystem.PV62 phases=1 Bus1=91087bf46262.1.0 kV=0.127 kVA=3.28 Pmpp=3.28 conn=wye PF = 1 %cutin = 0.00005 %cutout = 0.00005 effcurve = Myeff P-TCurve = MyPvsT Daily = MyIrrad TDaily = Mytemp 
New PVSystem.PV63 phases=2 Bus1=1446837bf46504.1.2.0 kV=0.22 kVA=9.22 Pmpp=9.22 conn=wye PF = 1 %cutin = 0.00005 %cutout = 0.00005 effcurve = Myeff P-TCurve = MyPvsT Daily = MyIrrad TDaily = Mytemp 
New PVSystem.PV64 phases=3 Bus1=983393bf46484.1.2.3.0 kV=0.22 kVA=12.37 Pmpp=12.37 conn=wye PF = 1 %cutin = 0.00005 %cutout = 0.00005 effcurve = Myeff P-TCurve = MyPvsT Daily = MyIrrad TDaily = Mytemp 
New PVSystem.PV65 phases=3 Bus1=94060bf42117.1.2.3.0 kV=0.22 kVA=12.31 Pmpp=12.31 conn=wye PF = 1 %cutin = 0.00005 %cutout = 0.00005 effcurve = Myeff P-TCurve = MyPvsT Daily = MyIrrad TDaily = Mytemp 
New PVSystem.PV66 phases=2 Bus1=104301339bf33513.1.2.0 kV=0.22 kVA=8.01 Pmpp=8.01 conn=wye PF = 1 %cutin = 0.00005 %cutout = 0.00005 effcurve = Myeff P-TCurve = MyPvsT Daily = MyIrrad TDaily = Mytemp 
New PVSystem.PV67 phases=3 Bus1=94138bf42164.1.2.3.0 kV=0.22 kVA=10.61 Pmpp=10.61 conn=wye PF = 1 %cutin = 0.00005 %cutout = 0.00005 effcurve = Myeff P-TCurve = MyPvsT Daily = MyIrrad TDaily = Mytemp 
New PVSystem.PV68 phases=3 Bus1=983358bf46481.1.2.3.0 kV=0.22 kVA=8.5 Pmpp=8.5 conn=wye PF = 1 %cutin = 0.00005 %cutout = 0.00005 effcurve = Myeff P-TCurve = MyPvsT Daily = MyIrrad TDaily = Mytemp 
New PVSystem.PV69 phases=2 Bus1=94057bf42115.1.2.0 kV=0.38 kVA=7.43 Pmpp=7.43 conn=wye PF = 1 %cutin = 0.00005 %cutout = 0.00005 effcurve = Myeff P-TCurve = MyPvsT Daily = MyIrrad TDaily = Mytemp 
New PVSystem.PV70 phases=2 Bus1=94176bf45366.1.2.0 kV=0.22 kVA=9.24 Pmpp=9.24 conn=wye PF = 1 %cutin = 0.00005 %cutout = 0.00005 effcurve = Myeff P-TCurve = MyPvsT Daily = MyIrrad TDaily = Mytemp 
New PVSystem.PV71 phases=3 Bus1=13438251bf60891.1.2.3.0 kV=0.22 kVA=9.69 Pmpp=9.69 conn=wye PF = 1 %cutin = 0.00005 %cutout = 0.00005 effcurve = Myeff P-TCurve = MyPvsT Daily = MyIrrad TDaily = Mytemp 
New PVSystem.PV72 phases=2 Bus1=9559523bf46631.1.2.0 kV=0.22 kVA=19.12 Pmpp=19.12 conn=wye PF = 1 %cutin = 0.00005 %cutout = 0.00005 effcurve = Myeff P-TCurve = MyPvsT Daily = MyIrrad TDaily = Mytemp 
New PVSystem.PV73 phases=3 Bus1=94073bf42142.1.2.3.0 kV=0.22 kVA=12.4 Pmpp=12.4 conn=wye PF = 1 %cutin = 0.00005 %cutout = 0.00005 effcurve = Myeff P-TCurve = MyPvsT Daily = MyIrrad TDaily = Mytemp 
New PVSystem.PV74 phases=2 Bus1=13384834bf42159.1.2.0 kV=0.22 kVA=4.52 Pmpp=4.52 conn=wye PF = 1 %cutin = 0.00005 %cutout = 0.00005 effcurve = Myeff P-TCurve = MyPvsT Daily = MyIrrad TDaily = Mytemp 
New PVSystem.PV75 phases=3 Bus1=94103bf42129.1.2.3.0 kV=0.22 kVA=55.13 Pmpp=55.13 conn=wye PF = 1 %cutin = 0.00005 %cutout = 0.00005 effcurve = Myeff P-TCurve = MyPvsT Daily = MyIrrad TDaily = Mytemp 
New PVSystem.PV76 phases=3 Bus1=12820193bf42135.1.2.3.0 kV=0.22 kVA=6.83 Pmpp=6.83 conn=wye PF = 1 %cutin = 0.00005 %cutout = 0.00005 effcurve = Myeff P-TCurve = MyPvsT Daily = MyIrrad TDaily = Mytemp 
New PVSystem.PV77 phases=3 Bus1=94081bf42122.1.2.3.0 kV=0.22 kVA=41.55 Pmpp=41.55 conn=wye PF = 1 %cutin = 0.00005 %cutout = 0.00005 effcurve = Myeff P-TCurve = MyPvsT Daily = MyIrrad TDaily = Mytemp 
New PVSystem.PV78 phases=3 Bus1=420144bf54355.1.2.3.0 kV=0.22 kVA=10.04 Pmpp=10.04 conn=wye PF = 1 %cutin = 0.00005 %cutout = 0.00005 effcurve = Myeff P-TCurve = MyPvsT Daily = MyIrrad TDaily = Mytemp 
New PVSystem.PV79 phases=3 Bus1=94056bf42145.1.2.3.0 kV=0.22 kVA=20.74 Pmpp=20.74 conn=wye PF = 1 %cutin = 0.00005 %cutout = 0.00005 effcurve = Myeff P-TCurve = MyPvsT Daily = MyIrrad TDaily = Mytemp 
New PVSystem.PV80 phases=3 Bus1=13438251bf60891.1.2.3.0 kV=0.22 kVA=23.92 Pmpp=23.92 conn=wye PF = 1 %cutin = 0.00005 %cutout = 0.00005 effcurve = Myeff P-TCurve = MyPvsT Daily = MyIrrad TDaily = Mytemp 
New PVSystem.PV81 phases=3 Bus1=91080bf42136.1.2.3.0 kV=0.22 kVA=8.51 Pmpp=8.51 conn=wye PF = 1 %cutin = 0.00005 %cutout = 0.00005 effcurve = Myeff P-TCurve = MyPvsT Daily = MyIrrad TDaily = Mytemp 
New PVSystem.PV82 phases=2 Bus1=1446837bf46504.1.2.0 kV=0.22 kVA=9.22 Pmpp=9.22 conn=wye PF = 1 %cutin = 0.00005 %cutout = 0.00005 effcurve = Myeff P-TCurve = MyPvsT Daily = MyIrrad TDaily = Mytemp 
New PVSystem.PV83 phases=3 Bus1=104301374bf33516.1.2.3.0 kV=0.22 kVA=6.62 Pmpp=6.62 conn=wye PF = 1 %cutin = 0.00005 %cutout = 0.00005 effcurve = Myeff P-TCurve = MyPvsT Daily = MyIrrad TDaily = Mytemp 
New PVSystem.PV84 phases=3 Bus1=430906bf60970.1.2.3.0 kV=0.22 kVA=15.11 Pmpp=15.11 conn=wye PF = 1 %cutin = 0.00005 %cutout = 0.00005 effcurve = Myeff P-TCurve = MyPvsT Daily = MyIrrad TDaily = Mytemp 
New PVSystem.PV85 phases=2 Bus1=94098bf42132.1.2.0 kV=0.22 kVA=31.82 Pmpp=31.82 conn=wye PF = 1 %cutin = 0.00005 %cutout = 0.00005 effcurve = Myeff P-TCurve = MyPvsT Daily = MyIrrad TDaily = Mytemp 
New PVSystem.PV86 phases=3 Bus1=13438251bf60891.1.2.3.0 kV=0.22 kVA=9.69 Pmpp=9.69 conn=wye PF = 1 %cutin = 0.00005 %cutout = 0.00005 effcurve = Myeff P-TCurve = MyPvsT Daily = MyIrrad TDaily = Mytemp 
New PVSystem.PV87 phases=3 Bus1=94056bf42145.1.2.3.0 kV=0.22 kVA=4.96 Pmpp=4.96 conn=wye PF = 1 %cutin = 0.00005 %cutout = 0.00005 effcurve = Myeff P-TCurve = MyPvsT Daily = MyIrrad TDaily = Mytemp 
New PVSystem.PV88 phases=2 Bus1=94048bf42116.1.2.0 kV=0.22 kVA=2.11 Pmpp=2.11 conn=wye PF = 1 %cutin = 0.00005 %cutout = 0.00005 effcurve = Myeff P-TCurve = MyPvsT Daily = MyIrrad TDaily = Mytemp 
New PVSystem.PV89 phases=2 Bus1=512419bf45838.2.3.0 kV=0.22 kVA=11.87 Pmpp=11.87 conn=wye PF = 1 %cutin = 0.00005 %cutout = 0.00005 effcurve = Myeff P-TCurve = MyPvsT Daily = MyIrrad TDaily = Mytemp 
New PVSystem.PV90 phases=2 Bus1=104301347bf33514.1.2.0 kV=0.22 kVA=4.14 Pmpp=4.14 conn=wye PF = 1 %cutin = 0.00005 %cutout = 0.00005 effcurve = Myeff P-TCurve = MyPvsT Daily = MyIrrad TDaily = Mytemp 
New PVSystem.PV91 phases=3 Bus1=440646bf42152.1.2.3.0 kV=0.22 kVA=10.07 Pmpp=10.07 conn=wye PF = 1 %cutin = 0.00005 %cutout = 0.00005 effcurve = Myeff P-TCurve = MyPvsT Daily = MyIrrad TDaily = Mytemp 
New PVSystem.PV92 phases=2 Bus1=94057bf42115.1.2.0 kV=0.22 kVA=4.57 Pmpp=4.57 conn=wye PF = 1 %cutin = 0.00005 %cutout = 0.00005 effcurve = Myeff P-TCurve = MyPvsT Daily = MyIrrad TDaily = Mytemp 
New PVSystem.PV93 phases=3 Bus1=94077bf44202.1.2.3.0 kV=0.22 kVA=18.1 Pmpp=18.1 conn=wye PF = 1 %cutin = 0.00005 %cutout = 0.00005 effcurve = Myeff P-TCurve = MyPvsT Daily = MyIrrad TDaily = Mytemp 
New PVSystem.PV94 phases=2 Bus1=94042bf42111.3.1.0 kV=0.22 kVA=5.73 Pmpp=5.73 conn=wye PF = 1 %cutin = 0.00005 %cutout = 0.00005 effcurve = Myeff P-TCurve = MyPvsT Daily = MyIrrad TDaily = Mytemp 
New PVSystem.PV95 phases=3 Bus1=104310440bf33308.1.2.3.0 kV=0.22 kVA=6.32 Pmpp=6.32 conn=wye PF = 1 %cutin = 0.00005 %cutout = 0.00005 effcurve = Myeff P-TCurve = MyPvsT Daily = MyIrrad TDaily = Mytemp 
New PVSystem.PV96 phases=3 Bus1=94063bf42143.1.2.3.0 kV=0.22 kVA=7.37 Pmpp=7.37 conn=wye PF = 1 %cutin = 0.00005 %cutout = 0.00005 effcurve = Myeff P-TCurve = MyPvsT Daily = MyIrrad TDaily = Mytemp 
New PVSystem.PV97 phases=3 Bus1=94046bf42150.1.2.3.0 kV=0.22 kVA=14.65 Pmpp=14.65 conn=wye PF = 1 %cutin = 0.00005 %cutout = 0.00005 effcurve = Myeff P-TCurve = MyPvsT Daily = MyIrrad TDaily = Mytemp 
New PVSystem.PV98 phases=2 Bus1=94048bf42116.3.1.0 kV=0.22 kVA=8.52 Pmpp=8.52 conn=wye PF = 1 %cutin = 0.00005 %cutout = 0.00005 effcurve = Myeff P-TCurve = MyPvsT Daily = MyIrrad TDaily = Mytemp 
New PVSystem.PV99 phases=3 Bus1=983401bf46483.1.2.3.0 kV=0.22 kVA=17.73 Pmpp=17.73 conn=wye PF = 1 %cutin = 0.00005 %cutout = 0.00005 effcurve = Myeff P-TCurve = MyPvsT Daily = MyIrrad TDaily = Mytemp 
New PVSystem.PV100 phases=3 Bus1=104146704bf42110.1.2.3.0 kV=0.22 kVA=18.2 Pmpp=18.2 conn=wye PF = 1 %cutin = 0.00005 %cutout = 0.00005 effcurve = Myeff P-TCurve = MyPvsT Daily = MyIrrad TDaily = Mytemp 
New PVSystem.PV101 phases=3 Bus1=94054bf42148.1.2.3.0 kV=0.22 kVA=11.17 Pmpp=11.17 conn=wye PF = 1 %cutin = 0.00005 %cutout = 0.00005 effcurve = Myeff P-TCurve = MyPvsT Daily = MyIrrad TDaily = Mytemp 
New PVSystem.PV102 phases=2 Bus1=9559523bf46631.1.2.0 kV=0.22 kVA=19.12 Pmpp=19.12 conn=wye PF = 1 %cutin = 0.00005 %cutout = 0.00005 effcurve = Myeff P-TCurve = MyPvsT Daily = MyIrrad TDaily = Mytemp 
New PVSystem.PV103 phases=2 Bus1=94129bf42165.2.3.0 kV=0.22 kVA=14.82 Pmpp=14.82 conn=wye PF = 1 %cutin = 0.00005 %cutout = 0.00005 effcurve = Myeff P-TCurve = MyPvsT Daily = MyIrrad TDaily = Mytemp 
New PVSystem.PV104 phases=3 Bus1=420124bf46355.1.2.3.0 kV=0.22 kVA=18.6 Pmpp=18.6 conn=wye PF = 1 %cutin = 0.00005 %cutout = 0.00005 effcurve = Myeff P-TCurve = MyPvsT Daily = MyIrrad TDaily = Mytemp 
New PVSystem.PV105 phases=3 Bus1=94144bf42161.1.2.3.0 kV=0.22 kVA=10.65 Pmpp=10.65 conn=wye PF = 1 %cutin = 0.00005 %cutout = 0.00005 effcurve = Myeff P-TCurve = MyPvsT Daily = MyIrrad TDaily = Mytemp 
New PVSystem.PV106 phases=2 Bus1=94060bf42117.1.2.0 kV=0.22 kVA=12.97 Pmpp=12.97 conn=wye PF = 1 %cutin = 0.00005 %cutout = 0.00005 effcurve = Myeff P-TCurve = MyPvsT Daily = MyIrrad TDaily = Mytemp 
New PVSystem.PV107 phases=3 Bus1=94073bf42142.1.2.3.0 kV=0.22 kVA=50.62 Pmpp=50.62 conn=wye PF = 1 %cutin = 0.00005 %cutout = 0.00005 effcurve = Myeff P-TCurve = MyPvsT Daily = MyIrrad TDaily = Mytemp 
New PVSystem.PV108 phases=2 Bus1=94060bf42117.1.2.0 kV=0.22 kVA=13.73 Pmpp=13.73 conn=wye PF = 1 %cutin = 0.00005 %cutout = 0.00005 effcurve = Myeff P-TCurve = MyPvsT Daily = MyIrrad TDaily = Mytemp 
New PVSystem.PV109 phases=2 Bus1=13384834bf42159.1.2.0 kV=0.22 kVA=4.71 Pmpp=4.71 conn=wye PF = 1 %cutin = 0.00005 %cutout = 0.00005 effcurve = Myeff P-TCurve = MyPvsT Daily = MyIrrad TDaily = Mytemp 
New PVSystem.PV110 phases=3 Bus1=94144bf42161.1.2.3.0 kV=0.22 kVA=5.54 Pmpp=5.54 conn=wye PF = 1 %cutin = 0.00005 %cutout = 0.00005 effcurve = Myeff P-TCurve = MyPvsT Daily = MyIrrad TDaily = Mytemp 
New PVSystem.PV111 phases=3 Bus1=94138bf42164.1.2.3.0 kV=0.22 kVA=2.95 Pmpp=2.95 conn=wye PF = 1 %cutin = 0.00005 %cutout = 0.00005 effcurve = Myeff P-TCurve = MyPvsT Daily = MyIrrad TDaily = Mytemp 
New PVSystem.PV112 phases=3 Bus1=427842bf46058.1.2.3.0 kV=0.22 kVA=38.27 Pmpp=38.27 conn=wye PF = 1 %cutin = 0.00005 %cutout = 0.00005 effcurve = Myeff P-TCurve = MyPvsT Daily = MyIrrad TDaily = Mytemp 
New PVSystem.PV113 phases=3 Bus1=104301361bf33515.1.2.3.0 kV=0.22 kVA=17.8 Pmpp=17.8 conn=wye PF = 1 %cutin = 0.00005 %cutout = 0.00005 effcurve = Myeff P-TCurve = MyPvsT Daily = MyIrrad TDaily = Mytemp 
New PVSystem.PV114 phases=3 Bus1=94083bf42138.1.2.3.0 kV=0.22 kVA=12.1 Pmpp=12.1 conn=wye PF = 1 %cutin = 0.00005 %cutout = 0.00005 effcurve = Myeff P-TCurve = MyPvsT Daily = MyIrrad TDaily = Mytemp 
New PVSystem.PV115 phases=3 Bus1=94133bf42166.1.2.3.0 kV=0.22 kVA=3.24 Pmpp=3.24 conn=wye PF = 1 %cutin = 0.00005 %cutout = 0.00005 effcurve = Myeff P-TCurve = MyPvsT Daily = MyIrrad TDaily = Mytemp 
New PVSystem.PV116 phases=3 Bus1=94041bf42151.1.2.3.0 kV=0.22 kVA=112.59 Pmpp=112.59 conn=wye PF = 1 %cutin = 0.00005 %cutout = 0.00005 effcurve = Myeff P-TCurve = MyPvsT Daily = MyIrrad TDaily = Mytemp 
New PVSystem.PV117 phases=3 Bus1=94144bf42161.1.2.3.0 kV=0.22 kVA=7.7 Pmpp=7.7 conn=wye PF = 1 %cutin = 0.00005 %cutout = 0.00005 effcurve = Myeff P-TCurve = MyPvsT Daily = MyIrrad TDaily = Mytemp 
New PVSystem.PV118 phases=2 Bus1=94129bf42165.3.1.0 kV=0.22 kVA=11.91 Pmpp=11.91 conn=wye PF = 1 %cutin = 0.00005 %cutout = 0.00005 effcurve = Myeff P-TCurve = MyPvsT Daily = MyIrrad TDaily = Mytemp 
New PVSystem.PV119 phases=2 Bus1=94060bf42117.1.2.0 kV=0.22 kVA=9.23 Pmpp=9.23 conn=wye PF = 1 %cutin = 0.00005 %cutout = 0.00005 effcurve = Myeff P-TCurve = MyPvsT Daily = MyIrrad TDaily = Mytemp 
New PVSystem.PV120 phases=2 Bus1=94129bf42165.1.2.0 kV=0.22 kVA=5.69 Pmpp=5.69 conn=wye PF = 1 %cutin = 0.00005 %cutout = 0.00005 effcurve = Myeff P-TCurve = MyPvsT Daily = MyIrrad TDaily = Mytemp 
New PVSystem.PV121 phases=2 Bus1=94133bf42166.2.3.0 kV=0.22 kVA=10.7 Pmpp=10.7 conn=wye PF = 1 %cutin = 0.00005 %cutout = 0.00005 effcurve = Myeff P-TCurve = MyPvsT Daily = MyIrrad TDaily = Mytemp 
New PVSystem.PV122 phases=3 Bus1=91080bf42136.1.2.3.0 kV=0.22 kVA=5.33 Pmpp=5.33 conn=wye PF = 1 %cutin = 0.00005 %cutout = 0.00005 effcurve = Myeff P-TCurve = MyPvsT Daily = MyIrrad TDaily = Mytemp 
New PVSystem.PV123 phases=3 Bus1=94133bf42166.1.2.3.0 kV=0.22 kVA=11.37 Pmpp=11.37 conn=wye PF = 1 %cutin = 0.00005 %cutout = 0.00005 effcurve = Myeff P-TCurve = MyPvsT Daily = MyIrrad TDaily = Mytemp 
New PVSystem.PV124 phases=3 Bus1=94046bf42150.1.2.3.0 kV=0.22 kVA=11.93 Pmpp=11.93 conn=wye PF = 1 %cutin = 0.00005 %cutout = 0.00005 effcurve = Myeff P-TCurve = MyPvsT Daily = MyIrrad TDaily = Mytemp 
New PVSystem.PV125 phases=2 Bus1=94103bf42129.1.2.0 kV=0.22 kVA=10.75 Pmpp=10.75 conn=wye PF = 1 %cutin = 0.00005 %cutout = 0.00005 effcurve = Myeff P-TCurve = MyPvsT Daily = MyIrrad TDaily = Mytemp 
New PVSystem.PV126 phases=3 Bus1=94160bf42157.1.2.3.0 kV=0.22 kVA=9.89 Pmpp=9.89 conn=wye PF = 1 %cutin = 0.00005 %cutout = 0.00005 effcurve = Myeff P-TCurve = MyPvsT Daily = MyIrrad TDaily = Mytemp 
New PVSystem.PV127 phases=2 Bus1=1446837bf46504.1.2.0 kV=0.22 kVA=9.22 Pmpp=9.22 conn=wye PF = 1 %cutin = 0.00005 %cutout = 0.00005 effcurve = Myeff P-TCurve = MyPvsT Daily = MyIrrad TDaily = Mytemp 
New PVSystem.PV128 phases=3 Bus1=983407bf46482.1.2.3.0 kV=0.22 kVA=10.06 Pmpp=10.06 conn=wye PF = 1 %cutin = 0.00005 %cutout = 0.00005 effcurve = Myeff P-TCurve = MyPvsT Daily = MyIrrad TDaily = Mytemp 
New PVSystem.PV129 phases=3 Bus1=13384834bf42159.1.2.3.0 kV=0.22 kVA=6.39 Pmpp=6.39 conn=wye PF = 1 %cutin = 0.00005 %cutout = 0.00005 effcurve = Myeff P-TCurve = MyPvsT Daily = MyIrrad TDaily = Mytemp 
New PVSystem.PV130 phases=3 Bus1=94063bf42143.1.2.3.0 kV=0.22 kVA=10.17 Pmpp=10.17 conn=wye PF = 1 %cutin = 0.00005 %cutout = 0.00005 effcurve = Myeff P-TCurve = MyPvsT Daily = MyIrrad TDaily = Mytemp 
New PVSystem.PV131 phases=3 Bus1=94055bf42147.1.2.3.0 kV=0.22 kVA=11.49 Pmpp=11.49 conn=wye PF = 1 %cutin = 0.00005 %cutout = 0.00005 effcurve = Myeff P-TCurve = MyPvsT Daily = MyIrrad TDaily = Mytemp 
New PVSystem.PV132 phases=3 Bus1=94144bf42161.1.2.3.0 kV=0.22 kVA=17.71 Pmpp=17.71 conn=wye PF = 1 %cutin = 0.00005 %cutout = 0.00005 effcurve = Myeff P-TCurve = MyPvsT Daily = MyIrrad TDaily = Mytemp 
New PVSystem.PV133 phases=2 Bus1=94144bf42161.2.3.0 kV=0.22 kVA=6.97 Pmpp=6.97 conn=wye PF = 1 %cutin = 0.00005 %cutout = 0.00005 effcurve = Myeff P-TCurve = MyPvsT Daily = MyIrrad TDaily = Mytemp 
New PVSystem.PV134 phases=3 Bus1=94048bf42116.1.2.3.0 kV=0.22 kVA=29.32 Pmpp=29.32 conn=wye PF = 1 %cutin = 0.00005 %cutout = 0.00005 effcurve = Myeff P-TCurve = MyPvsT Daily = MyIrrad TDaily = Mytemp 
New PVSystem.PV135 phases=2 Bus1=94160bf42157.2.3.0 kV=0.22 kVA=13.38 Pmpp=13.38 conn=wye PF = 1 %cutin = 0.00005 %cutout = 0.00005 effcurve = Myeff P-TCurve = MyPvsT Daily = MyIrrad TDaily = Mytemp 
New PVSystem.PV136 phases=3 Bus1=983358bf46481.1.2.3.0 kV=0.22 kVA=7.53 Pmpp=7.53 conn=wye PF = 1 %cutin = 0.00005 %cutout = 0.00005 effcurve = Myeff P-TCurve = MyPvsT Daily = MyIrrad TDaily = Mytemp 
New PVSystem.PV137 phases=3 Bus1=94074bf42137.1.2.3.0 kV=0.22 kVA=19.92 Pmpp=19.92 conn=wye PF = 1 %cutin = 0.00005 %cutout = 0.00005 effcurve = Myeff P-TCurve = MyPvsT Daily = MyIrrad TDaily = Mytemp 
New PVSystem.PV138 phases=1 Bus1=94070bf42141.3.0 kV=0.127 kVA=1.62 Pmpp=1.62 conn=wye PF = 1 %cutin = 0.00005 %cutout = 0.00005 effcurve = Myeff P-TCurve = MyPvsT Daily = MyIrrad TDaily = Mytemp 
New PVSystem.PV139 phases=3 Bus1=94057bf42115.1.2.3.0 kV=0.22 kVA=7.29 Pmpp=7.29 conn=wye PF = 1 %cutin = 0.00005 %cutout = 0.00005 effcurve = Myeff P-TCurve = MyPvsT Daily = MyIrrad TDaily = Mytemp 
New PVSystem.PV140 phases=3 Bus1=420144bf54355.1.2.3.0 kV=0.38 kVA=7.51 Pmpp=7.51 conn=wye PF = 1 %cutin = 0.00005 %cutout = 0.00005 effcurve = Myeff P-TCurve = MyPvsT Daily = MyIrrad TDaily = Mytemp 
New PVSystem.PV141 phases=3 Bus1=91471bf38588.1.2.3.0 kV=0.22 kVA=22.0 Pmpp=22.0 conn=wye PF = 1 %cutin = 0.00005 %cutout = 0.00005 effcurve = Myeff P-TCurve = MyPvsT Daily = MyIrrad TDaily = Mytemp 
New PVSystem.PV142 phases=2 Bus1=440876bf33769.2.3.0 kV=0.22 kVA=2.4 Pmpp=2.4 conn=wye PF = 1 %cutin = 0.00005 %cutout = 0.00005 effcurve = Myeff P-TCurve = MyPvsT Daily = MyIrrad TDaily = Mytemp 
New PVSystem.PV143 phases=3 Bus1=91080bf42136.1.2.3.0 kV=0.22 kVA=6.55 Pmpp=6.55 conn=wye PF = 1 %cutin = 0.00005 %cutout = 0.00005 effcurve = Myeff P-TCurve = MyPvsT Daily = MyIrrad TDaily = Mytemp 
New PVSystem.PV144 phases=2 Bus1=428555bf49151.3.1.0 kV=0.22 kVA=5.27 Pmpp=5.27 conn=wye PF = 1 %cutin = 0.00005 %cutout = 0.00005 effcurve = Myeff P-TCurve = MyPvsT Daily = MyIrrad TDaily = Mytemp 
New PVSystem.PV145 phases=3 Bus1=430966bf60875.1.2.3.0 kV=0.22 kVA=42.42 Pmpp=42.42 conn=wye PF = 1 %cutin = 0.00005 %cutout = 0.00005 effcurve = Myeff P-TCurve = MyPvsT Daily = MyIrrad TDaily = Mytemp 
New PVSystem.PV146 phases=3 Bus1=420144bf54355.1.2.3.0 kV=0.22 kVA=5.51 Pmpp=5.51 conn=wye PF = 1 %cutin = 0.00005 %cutout = 0.00005 effcurve = Myeff P-TCurve = MyPvsT Daily = MyIrrad TDaily = Mytemp 
New PVSystem.PV147 phases=2 Bus1=91417bf42149.1.2.0 kV=0.22 kVA=10.08 Pmpp=10.08 conn=wye PF = 1 %cutin = 0.00005 %cutout = 0.00005 effcurve = Myeff P-TCurve = MyPvsT Daily = MyIrrad TDaily = Mytemp 
New PVSystem.PV148 phases=2 Bus1=420144bf54355.1.2.0 kV=0.22 kVA=3.87 Pmpp=3.87 conn=wye PF = 1 %cutin = 0.00005 %cutout = 0.00005 effcurve = Myeff P-TCurve = MyPvsT Daily = MyIrrad TDaily = Mytemp 
New PVSystem.PV149 phases=3 Bus1=12820193bf42135.1.2.3.0 kV=0.22 kVA=17.35 Pmpp=17.35 conn=wye PF = 1 %cutin = 0.00005 %cutout = 0.00005 effcurve = Myeff P-TCurve = MyPvsT Daily = MyIrrad TDaily = Mytemp 
New PVSystem.PV150 phases=3 Bus1=10305457m784.1.2.3 kV=13.8 kVA=132.88 Pmpp=132.88 conn=wye PF = 1 %cutin = 0.00005 %cutout = 0.00005 effcurve = Myeff P-TCurve = MyPvsT Daily = MyIrrad TDaily = Mytemp 
New PVSystem.PV151 phases=2 Bus1=94073bf42142.3.1.0 kV=0.22 kVA=9.28 Pmpp=9.28 conn=wye PF = 1 %cutin = 0.00005 %cutout = 0.00005 effcurve = Myeff P-TCurve = MyPvsT Daily = MyIrrad TDaily = Mytemp 
New PVSystem.PV152 phases=2 Bus1=94054bf42148.2.3.0 kV=0.22 kVA=5.68 Pmpp=5.68 conn=wye PF = 1 %cutin = 0.00005 %cutout = 0.00005 effcurve = Myeff P-TCurve = MyPvsT Daily = MyIrrad TDaily = Mytemp 
New PVSystem.PV153 phases=3 Bus1=94074bf42137.1.2.3.0 kV=0.22 kVA=11.98 Pmpp=11.98 conn=wye PF = 1 %cutin = 0.00005 %cutout = 0.00005 effcurve = Myeff P-TCurve = MyPvsT Daily = MyIrrad TDaily = Mytemp 
New PVSystem.PV154 phases=2 Bus1=94095bf42125.1.2.0 kV=0.22 kVA=3.36 Pmpp=3.36 conn=wye PF = 1 %cutin = 0.00005 %cutout = 0.00005 effcurve = Myeff P-TCurve = MyPvsT Daily = MyIrrad TDaily = Mytemp 
New PVSystem.PV155 phases=3 Bus1=94138bf42164.1.2.3.0 kV=0.22 kVA=10.56 Pmpp=10.56 conn=wye PF = 1 %cutin = 0.00005 %cutout = 0.00005 effcurve = Myeff P-TCurve = MyPvsT Daily = MyIrrad TDaily = Mytemp 
New PVSystem.PV156 phases=3 Bus1=94165bf42158.1.2.3.0 kV=0.22 kVA=12.52 Pmpp=12.52 conn=wye PF = 1 %cutin = 0.00005 %cutout = 0.00005 effcurve = Myeff P-TCurve = MyPvsT Daily = MyIrrad TDaily = Mytemp 
New PVSystem.PV157 phases=3 Bus1=420144bf54355.1.2.3.0 kV=0.22 kVA=2.71 Pmpp=2.71 conn=wye PF = 1 %cutin = 0.00005 %cutout = 0.00005 effcurve = Myeff P-TCurve = MyPvsT Daily = MyIrrad TDaily = Mytemp 
New PVSystem.PV158 phases=3 Bus1=427692bf46256.1.2.3.0 kV=0.22 kVA=4.26 Pmpp=4.26 conn=wye PF = 1 %cutin = 0.00005 %cutout = 0.00005 effcurve = Myeff P-TCurve = MyPvsT Daily = MyIrrad TDaily = Mytemp 
New PVSystem.PV159 phases=2 Bus1=94046bf42150.1.2.0 kV=0.22 kVA=4.17 Pmpp=4.17 conn=wye PF = 1 %cutin = 0.00005 %cutout = 0.00005 effcurve = Myeff P-TCurve = MyPvsT Daily = MyIrrad TDaily = Mytemp 
New PVSystem.PV160 phases=3 Bus1=12820193bf42135.1.2.3.0 kV=0.22 kVA=6.9 Pmpp=6.9 conn=wye PF = 1 %cutin = 0.00005 %cutout = 0.00005 effcurve = Myeff P-TCurve = MyPvsT Daily = MyIrrad TDaily = Mytemp 
New PVSystem.PV161 phases=2 Bus1=94042bf42111.1.2.0 kV=0.22 kVA=5.73 Pmpp=5.73 conn=wye PF = 1 %cutin = 0.00005 %cutout = 0.00005 effcurve = Myeff P-TCurve = MyPvsT Daily = MyIrrad TDaily = Mytemp 
New PVSystem.PV162 phases=2 Bus1=91189bf48508.3.1.0 kV=0.22 kVA=7.64 Pmpp=7.64 conn=wye PF = 1 %cutin = 0.00005 %cutout = 0.00005 effcurve = Myeff P-TCurve = MyPvsT Daily = MyIrrad TDaily = Mytemp 
New PVSystem.PV163 phases=3 Bus1=420124bf46355.1.2.3.0 kV=0.22 kVA=29.35 Pmpp=29.35 conn=wye PF = 1 %cutin = 0.00005 %cutout = 0.00005 effcurve = Myeff P-TCurve = MyPvsT Daily = MyIrrad TDaily = Mytemp 
New PVSystem.PV164 phases=2 Bus1=91181bf42124.1.2.0 kV=0.22 kVA=7.92 Pmpp=7.92 conn=wye PF = 1 %cutin = 0.00005 %cutout = 0.00005 effcurve = Myeff P-TCurve = MyPvsT Daily = MyIrrad TDaily = Mytemp 
New PVSystem.PV165 phases=2 Bus1=1446837bf46504.1.2.0 kV=0.22 kVA=6.72 Pmpp=6.72 conn=wye PF = 1 %cutin = 0.00005 %cutout = 0.00005 effcurve = Myeff P-TCurve = MyPvsT Daily = MyIrrad TDaily = Mytemp 
New PVSystem.PV166 phases=3 Bus1=13438251bf60891.1.2.3.0 kV=0.22 kVA=24.69 Pmpp=24.69 conn=wye PF = 1 %cutin = 0.00005 %cutout = 0.00005 effcurve = Myeff P-TCurve = MyPvsT Daily = MyIrrad TDaily = Mytemp 
New PVSystem.PV167 phases=2 Bus1=91471bf38588.1.2.0 kV=0.22 kVA=15.05 Pmpp=15.05 conn=wye PF = 1 %cutin = 0.00005 %cutout = 0.00005 effcurve = Myeff P-TCurve = MyPvsT Daily = MyIrrad TDaily = Mytemp 
New PVSystem.PV168 phases=3 Bus1=94098bf42132.1.2.3.0 kV=0.22 kVA=31.53 Pmpp=31.53 conn=wye PF = 1 %cutin = 0.00005 %cutout = 0.00005 effcurve = Myeff P-TCurve = MyPvsT Daily = MyIrrad TDaily = Mytemp 
New PVSystem.PV169 phases=3 Bus1=94054bf42148.1.2.3.0 kV=0.22 kVA=17.75 Pmpp=17.75 conn=wye PF = 1 %cutin = 0.00005 %cutout = 0.00005 effcurve = Myeff P-TCurve = MyPvsT Daily = MyIrrad TDaily = Mytemp 
New PVSystem.PV170 phases=3 Bus1=104301374bf33516.1.2.3.0 kV=0.22 kVA=2.39 Pmpp=2.39 conn=wye PF = 1 %cutin = 0.00005 %cutout = 0.00005 effcurve = Myeff P-TCurve = MyPvsT Daily = MyIrrad TDaily = Mytemp 
New PVSystem.PV171 phases=2 Bus1=94156bf42160.1.2.0 kV=0.22 kVA=3.89 Pmpp=3.89 conn=wye PF = 1 %cutin = 0.00005 %cutout = 0.00005 effcurve = Myeff P-TCurve = MyPvsT Daily = MyIrrad TDaily = Mytemp 
New PVSystem.PV172 phases=3 Bus1=94074bf42137.1.2.3.0 kV=0.22 kVA=11.11 Pmpp=11.11 conn=wye PF = 1 %cutin = 0.00005 %cutout = 0.00005 effcurve = Myeff P-TCurve = MyPvsT Daily = MyIrrad TDaily = Mytemp 
New PVSystem.PV173 phases=3 Bus1=427842bf46058.1.2.3.0 kV=0.22 kVA=14.44 Pmpp=14.44 conn=wye PF = 1 %cutin = 0.00005 %cutout = 0.00005 effcurve = Myeff P-TCurve = MyPvsT Daily = MyIrrad TDaily = Mytemp 
New PVSystem.PV174 phases=3 Bus1=91080bf42136.1.2.3.0 kV=0.22 kVA=14.55 Pmpp=14.55 conn=wye PF = 1 %cutin = 0.00005 %cutout = 0.00005 effcurve = Myeff P-TCurve = MyPvsT Daily = MyIrrad TDaily = Mytemp 
New PVSystem.PV175 phases=2 Bus1=91080bf42136.2.3.0 kV=0.22 kVA=10.83 Pmpp=10.83 conn=wye PF = 1 %cutin = 0.00005 %cutout = 0.00005 effcurve = Myeff P-TCurve = MyPvsT Daily = MyIrrad TDaily = Mytemp 
New PVSystem.PV176 phases=2 Bus1=9559523bf46631.1.2.0 kV=0.22 kVA=29.35 Pmpp=29.35 conn=wye PF = 1 %cutin = 0.00005 %cutout = 0.00005 effcurve = Myeff P-TCurve = MyPvsT Daily = MyIrrad TDaily = Mytemp 
New PVSystem.PV177 phases=2 Bus1=94074bf42137.2.3.0 kV=0.22 kVA=5.98 Pmpp=5.98 conn=wye PF = 1 %cutin = 0.00005 %cutout = 0.00005 effcurve = Myeff P-TCurve = MyPvsT Daily = MyIrrad TDaily = Mytemp 
New PVSystem.PV178 phases=2 Bus1=94144bf42161.2.3.0 kV=0.22 kVA=3.07 Pmpp=3.07 conn=wye PF = 1 %cutin = 0.00005 %cutout = 0.00005 effcurve = Myeff P-TCurve = MyPvsT Daily = MyIrrad TDaily = Mytemp 
New PVSystem.PV179 phases=2 Bus1=94138bf42164.3.1.0 kV=0.22 kVA=7.1 Pmpp=7.1 conn=wye PF = 1 %cutin = 0.00005 %cutout = 0.00005 effcurve = Myeff P-TCurve = MyPvsT Daily = MyIrrad TDaily = Mytemp 
New PVSystem.PV180 phases=3 Bus1=94098bf42132.1.2.3.0 kV=0.22 kVA=33.52 Pmpp=33.52 conn=wye PF = 1 %cutin = 0.00005 %cutout = 0.00005 effcurve = Myeff P-TCurve = MyPvsT Daily = MyIrrad TDaily = Mytemp 
New PVSystem.PV181 phases=2 Bus1=90904bf54869.2.3.0 kV=0.22 kVA=18.89 Pmpp=18.89 conn=wye PF = 1 %cutin = 0.00005 %cutout = 0.00005 effcurve = Myeff P-TCurve = MyPvsT Daily = MyIrrad TDaily = Mytemp 
New PVSystem.PV182 phases=3 Bus1=94076bf42139.1.2.3.0 kV=0.22 kVA=19.36 Pmpp=19.36 conn=wye PF = 1 %cutin = 0.00005 %cutout = 0.00005 effcurve = Myeff P-TCurve = MyPvsT Daily = MyIrrad TDaily = Mytemp 
New PVSystem.PV183 phases=3 Bus1=94055bf42147.1.2.3.0 kV=0.22 kVA=6.26 Pmpp=6.26 conn=wye PF = 1 %cutin = 0.00005 %cutout = 0.00005 effcurve = Myeff P-TCurve = MyPvsT Daily = MyIrrad TDaily = Mytemp 
New PVSystem.PV184 phases=2 Bus1=430966bf60875.1.2.0 kV=0.22 kVA=4.31 Pmpp=4.31 conn=wye PF = 1 %cutin = 0.00005 %cutout = 0.00005 effcurve = Myeff P-TCurve = MyPvsT Daily = MyIrrad TDaily = Mytemp 
New PVSystem.PV185 phases=2 Bus1=94160bf42157.1.2.0 kV=0.22 kVA=9.03 Pmpp=9.03 conn=wye PF = 1 %cutin = 0.00005 %cutout = 0.00005 effcurve = Myeff P-TCurve = MyPvsT Daily = MyIrrad TDaily = Mytemp 
New PVSystem.PV186 phases=2 Bus1=94138bf42164.2.3.0 kV=0.22 kVA=6.45 Pmpp=6.45 conn=wye PF = 1 %cutin = 0.00005 %cutout = 0.00005 effcurve = Myeff P-TCurve = MyPvsT Daily = MyIrrad TDaily = Mytemp 
New PVSystem.PV187 phases=3 Bus1=94156bf42160.1.2.3.0 kV=0.22 kVA=1.88 Pmpp=1.88 conn=wye PF = 1 %cutin = 0.00005 %cutout = 0.00005 effcurve = Myeff P-TCurve = MyPvsT Daily = MyIrrad TDaily = Mytemp 
New PVSystem.PV188 phases=3 Bus1=430906bf60970.1.2.3.0 kV=0.22 kVA=4.1 Pmpp=4.1 conn=wye PF = 1 %cutin = 0.00005 %cutout = 0.00005 effcurve = Myeff P-TCurve = MyPvsT Daily = MyIrrad TDaily = Mytemp 
New PVSystem.PV189 phases=2 Bus1=94081bf42122.1.2.0 kV=0.22 kVA=13.61 Pmpp=13.61 conn=wye PF = 1 %cutin = 0.00005 %cutout = 0.00005 effcurve = Myeff P-TCurve = MyPvsT Daily = MyIrrad TDaily = Mytemp 
New PVSystem.PV190 phases=3 Bus1=94083bf42138.1.2.3.0 kV=0.22 kVA=31.07 Pmpp=31.07 conn=wye PF = 1 %cutin = 0.00005 %cutout = 0.00005 effcurve = Myeff P-TCurve = MyPvsT Daily = MyIrrad TDaily = Mytemp 
New PVSystem.PV191 phases=2 Bus1=91417bf42149.1.2.0 kV=0.22 kVA=5.6 Pmpp=5.6 conn=wye PF = 1 %cutin = 0.00005 %cutout = 0.00005 effcurve = Myeff P-TCurve = MyPvsT Daily = MyIrrad TDaily = Mytemp 
New PVSystem.PV192 phases=2 Bus1=91011bf42130.1.2.0 kV=0.22 kVA=4.74 Pmpp=4.74 conn=wye PF = 1 %cutin = 0.00005 %cutout = 0.00005 effcurve = Myeff P-TCurve = MyPvsT Daily = MyIrrad TDaily = Mytemp 
New PVSystem.PV193 phases=3 Bus1=94081bf42122.1.2.3.0 kV=0.22 kVA=20.94 Pmpp=20.94 conn=wye PF = 1 %cutin = 0.00005 %cutout = 0.00005 effcurve = Myeff P-TCurve = MyPvsT Daily = MyIrrad TDaily = Mytemp 
New PVSystem.PV194 phases=3 Bus1=428555bf49151.1.2.3.0 kV=0.22 kVA=7.45 Pmpp=7.45 conn=wye PF = 1 %cutin = 0.00005 %cutout = 0.00005 effcurve = Myeff P-TCurve = MyPvsT Daily = MyIrrad TDaily = Mytemp 
New PVSystem.PV195 phases=3 Bus1=94063bf42143.1.2.3.0 kV=0.22 kVA=3.46 Pmpp=3.46 conn=wye PF = 1 %cutin = 0.00005 %cutout = 0.00005 effcurve = Myeff P-TCurve = MyPvsT Daily = MyIrrad TDaily = Mytemp 
New PVSystem.PV196 phases=2 Bus1=94129bf42165.1.2.0 kV=0.22 kVA=7.81 Pmpp=7.81 conn=wye PF = 1 %cutin = 0.00005 %cutout = 0.00005 effcurve = Myeff P-TCurve = MyPvsT Daily = MyIrrad TDaily = Mytemp 
New PVSystem.PV197 phases=3 Bus1=94043bf42113.1.2.3.0 kV=0.22 kVA=13.29 Pmpp=13.29 conn=wye PF = 1 %cutin = 0.00005 %cutout = 0.00005 effcurve = Myeff P-TCurve = MyPvsT Daily = MyIrrad TDaily = Mytemp 
New PVSystem.PV198 phases=3 Bus1=94048bf42116.1.2.3.0 kV=0.22 kVA=7.27 Pmpp=7.27 conn=wye PF = 1 %cutin = 0.00005 %cutout = 0.00005 effcurve = Myeff P-TCurve = MyPvsT Daily = MyIrrad TDaily = Mytemp 
New PVSystem.PV199 phases=2 Bus1=94095bf42125.2.3.0 kV=0.22 kVA=3.18 Pmpp=3.18 conn=wye PF = 1 %cutin = 0.00005 %cutout = 0.00005 effcurve = Myeff P-TCurve = MyPvsT Daily = MyIrrad TDaily = Mytemp 
...
